<?xml version="1.0" encoding="UTF-8"?>
<configuration>
    <input>
        <net-file value="zddz.net.xml"/>
        <route-files value="zddz.rou.xml"/>
    </input>
    <time>
        <begin value="0"/>
        <end value="600"/>
    </time>
    <processing>
        <time-to-teleport value="-1"/>  <!-- never teleport stuck cars: real queues -->
    </processing>
</configuration>
