<?xml version="1.0" encoding="UTF-8"?>
<!-- Two-way roads on each arm, 2 lanes per direction, 50 km/h (13.9 m/s). -->
<edges>
    <edge id="N_in" from="N" to="C" numLanes="2" speed="13.9"/>
    <edge id="C_N"  from="C" to="N" numLanes="2" speed="13.9"/>
    <edge id="S_in" from="S" to="C" numLanes="2" speed="13.9"/>
    <edge id="C_S"  from="C" to="S" numLanes="2" speed="13.9"/>
    <edge id="E_in" from="E" to="C" numLanes="2" speed="13.9"/>
    <edge id="C_E"  from="C" to="E" numLanes="2" speed="13.9"/>
    <edge id="W_in" from="W" to="C" numLanes="2" speed="13.9"/>
    <edge id="C_W"  from="C" to="W" numLanes="2" speed="13.9"/>
</edges>
