<?xml version="1.0" encoding="UTF-8"?>
<!-- Zuun Dorvon Zam: 4-arm signalised junction.
     Center C is the traffic light; N/S/E/W are the leg endpoints.
     We map our measured legs: N=NORTH, S=SOUTH, E=EAST, W=SW. -->
<nodes>
    <node id="C" x="0"    y="0"    type="traffic_light"/>
    <node id="N" x="0"    y="300"  type="priority"/>
    <node id="S" x="0"    y="-300" type="priority"/>
    <node id="E" x="300"  y="0"    type="priority"/>
    <node id="W" x="-300" y="0"    type="priority"/>
</nodes>
