<?xml version="1.0" encoding="UTF-8"?>

<!-- generated on 2026-06-13T13:06:39.689015+08:00 by Eclipse SUMO netconvert 1.27.0
<netconvertConfiguration xmlns:xsi="http://www.w3.org/2001/XMLSchema-instance" xsi:noNamespaceSchemaLocation="http://sumo.dlr.de/xsd/netconvertConfiguration.xsd">

    <input>
        <node-files value="zddz.nod.xml"/>
        <edge-files value="zddz.edg.xml"/>
    </input>

    <output>
        <output-file value="zddz.net.xml"/>
    </output>

</netconvertConfiguration>
-->

<net version="1.20" junctionCornerDetail="5" limitTurnSpeed="5.50" xmlns:xsi="http://www.w3.org/2001/XMLSchema-instance" xsi:noNamespaceSchemaLocation="http://sumo.dlr.de/xsd/net_file.xsd">

    <location netOffset="300.00,300.00" convBoundary="0.00,0.00,600.00,600.00" origBoundary="-300.00,-300.00,300.00,300.00" projParameter="!"/>

    <edge id=":C_0" function="internal">
        <lane id=":C_0_0" index="0" speed="6.51" length="9.03" shape="295.20,310.40 294.85,307.95 293.80,306.20 292.05,305.15 289.60,304.80"/>
    </edge>
    <edge id=":C_1" function="internal">
        <lane id=":C_1_0" index="0" speed="13.90" length="20.80" shape="295.20,310.40 295.20,289.60"/>
        <lane id=":C_1_1" index="1" speed="13.90" length="20.80" shape="298.40,310.40 298.40,289.60"/>
    </edge>
    <edge id=":C_3" function="internal">
        <lane id=":C_3_0" index="0" speed="9.26" length="5.01" shape="298.40,310.40 299.11,305.44"/>
    </edge>
    <edge id=":C_4" function="internal">
        <lane id=":C_4_0" index="0" speed="3.65" length="1.44" shape="298.40,310.40 299.20,309.20"/>
    </edge>
    <edge id=":C_20" function="internal">
        <lane id=":C_20_0" index="0" speed="9.26" length="14.34" shape="299.11,305.44 299.15,305.15 301.40,301.40 305.15,299.15 310.40,298.40"/>
    </edge>
    <edge id=":C_21" function="internal">
        <lane id=":C_21_0" index="0" speed="3.65" length="3.23" shape="299.20,309.20 300.00,308.80 300.80,309.20 301.60,310.40"/>
    </edge>
    <edge id=":C_5" function="internal">
        <lane id=":C_5_0" index="0" speed="6.51" length="9.03" shape="310.40,304.80 307.95,305.15 306.20,306.20 305.15,307.95 304.80,310.40"/>
    </edge>
    <edge id=":C_6" function="internal">
        <lane id=":C_6_0" index="0" speed="13.90" length="20.80" shape="310.40,304.80 289.60,304.80"/>
        <lane id=":C_6_1" index="1" speed="13.90" length="20.80" shape="310.40,301.60 289.60,301.60"/>
    </edge>
    <edge id=":C_8" function="internal">
        <lane id=":C_8_0" index="0" speed="9.26" length="5.01" shape="310.40,301.60 305.44,300.89"/>
    </edge>
    <edge id=":C_9" function="internal">
        <lane id=":C_9_0" index="0" speed="3.65" length="1.44" shape="310.40,301.60 309.20,300.80"/>
    </edge>
    <edge id=":C_22" function="internal">
        <lane id=":C_22_0" index="0" speed="9.26" length="14.34" shape="305.44,300.89 305.15,300.85 301.40,298.60 299.15,294.85 298.40,289.60"/>
    </edge>
    <edge id=":C_23" function="internal">
        <lane id=":C_23_0" index="0" speed="3.65" length="3.23" shape="309.20,300.80 308.80,300.00 309.20,299.20 310.40,298.40"/>
    </edge>
    <edge id=":C_10" function="internal">
        <lane id=":C_10_0" index="0" speed="6.51" length="9.03" shape="304.80,289.60 305.15,292.05 306.20,293.80 307.95,294.85 310.40,295.20"/>
    </edge>
    <edge id=":C_11" function="internal">
        <lane id=":C_11_0" index="0" speed="13.90" length="20.80" shape="304.80,289.60 304.80,310.40"/>
        <lane id=":C_11_1" index="1" speed="13.90" length="20.80" shape="301.60,289.60 301.60,310.40"/>
    </edge>
    <edge id=":C_13" function="internal">
        <lane id=":C_13_0" index="0" speed="9.26" length="5.01" shape="301.60,289.60 300.89,294.56"/>
    </edge>
    <edge id=":C_14" function="internal">
        <lane id=":C_14_0" index="0" speed="3.65" length="1.44" shape="301.60,289.60 300.80,290.80"/>
    </edge>
    <edge id=":C_24" function="internal">
        <lane id=":C_24_0" index="0" speed="9.26" length="14.34" shape="300.89,294.56 300.85,294.85 298.60,298.60 294.85,300.85 289.60,301.60"/>
    </edge>
    <edge id=":C_25" function="internal">
        <lane id=":C_25_0" index="0" speed="3.65" length="3.23" shape="300.80,290.80 300.00,291.20 299.20,290.80 298.40,289.60"/>
    </edge>
    <edge id=":C_15" function="internal">
        <lane id=":C_15_0" index="0" speed="6.51" length="9.03" shape="289.60,295.20 292.05,294.85 293.80,293.80 294.85,292.05 295.20,289.60"/>
    </edge>
    <edge id=":C_16" function="internal">
        <lane id=":C_16_0" index="0" speed="13.90" length="20.80" shape="289.60,295.20 310.40,295.20"/>
        <lane id=":C_16_1" index="1" speed="13.90" length="20.80" shape="289.60,298.40 310.40,298.40"/>
    </edge>
    <edge id=":C_18" function="internal">
        <lane id=":C_18_0" index="0" speed="9.26" length="5.01" shape="289.60,298.40 294.56,299.11"/>
    </edge>
    <edge id=":C_19" function="internal">
        <lane id=":C_19_0" index="0" speed="3.65" length="1.44" shape="289.60,298.40 290.80,299.20"/>
    </edge>
    <edge id=":C_26" function="internal">
        <lane id=":C_26_0" index="0" speed="9.26" length="14.34" shape="294.56,299.11 294.85,299.15 298.60,301.40 300.85,305.15 301.60,310.40"/>
    </edge>
    <edge id=":C_27" function="internal">
        <lane id=":C_27_0" index="0" speed="3.65" length="3.23" shape="290.80,299.20 291.20,300.00 290.80,300.80 289.60,301.60"/>
    </edge>
    <edge id=":E_0" function="internal">
        <lane id=":E_0_0" index="0" speed="3.65" length="4.67" shape="600.00,298.40 601.20,299.20 601.60,300.00 601.20,300.80 600.00,301.60"/>
    </edge>
    <edge id=":N_0" function="internal">
        <lane id=":N_0_0" index="0" speed="3.65" length="4.67" shape="301.60,600.00 300.80,601.20 300.00,601.60 299.20,601.20 298.40,600.00"/>
    </edge>
    <edge id=":S_0" function="internal">
        <lane id=":S_0_0" index="0" speed="3.65" length="4.67" shape="298.40,0.00 299.20,-1.20 300.00,-1.60 300.80,-1.20 301.60,0.00"/>
    </edge>
    <edge id=":W_0" function="internal">
        <lane id=":W_0_0" index="0" speed="3.65" length="4.67" shape="0.00,301.60 -1.20,300.80 -1.60,300.00 -1.20,299.20 0.00,298.40"/>
    </edge>

    <edge id="C_E" from="C" to="E" priority="-1">
        <lane id="C_E_0" index="0" speed="13.90" length="289.60" shape="310.40,295.20 600.00,295.20"/>
        <lane id="C_E_1" index="1" speed="13.90" length="289.60" shape="310.40,298.40 600.00,298.40"/>
    </edge>
    <edge id="C_N" from="C" to="N" priority="-1">
        <lane id="C_N_0" index="0" speed="13.90" length="289.60" shape="304.80,310.40 304.80,600.00"/>
        <lane id="C_N_1" index="1" speed="13.90" length="289.60" shape="301.60,310.40 301.60,600.00"/>
    </edge>
    <edge id="C_S" from="C" to="S" priority="-1">
        <lane id="C_S_0" index="0" speed="13.90" length="289.60" shape="295.20,289.60 295.20,0.00"/>
        <lane id="C_S_1" index="1" speed="13.90" length="289.60" shape="298.40,289.60 298.40,0.00"/>
    </edge>
    <edge id="C_W" from="C" to="W" priority="-1">
        <lane id="C_W_0" index="0" speed="13.90" length="289.60" shape="289.60,304.80 0.00,304.80"/>
        <lane id="C_W_1" index="1" speed="13.90" length="289.60" shape="289.60,301.60 0.00,301.60"/>
    </edge>
    <edge id="E_in" from="E" to="C" priority="-1">
        <lane id="E_in_0" index="0" speed="13.90" length="289.60" shape="600.00,304.80 310.40,304.80"/>
        <lane id="E_in_1" index="1" speed="13.90" length="289.60" shape="600.00,301.60 310.40,301.60"/>
    </edge>
    <edge id="N_in" from="N" to="C" priority="-1">
        <lane id="N_in_0" index="0" speed="13.90" length="289.60" shape="295.20,600.00 295.20,310.40"/>
        <lane id="N_in_1" index="1" speed="13.90" length="289.60" shape="298.40,600.00 298.40,310.40"/>
    </edge>
    <edge id="S_in" from="S" to="C" priority="-1">
        <lane id="S_in_0" index="0" speed="13.90" length="289.60" shape="304.80,0.00 304.80,289.60"/>
        <lane id="S_in_1" index="1" speed="13.90" length="289.60" shape="301.60,0.00 301.60,289.60"/>
    </edge>
    <edge id="W_in" from="W" to="C" priority="-1">
        <lane id="W_in_0" index="0" speed="13.90" length="289.60" shape="0.00,295.20 289.60,295.20"/>
        <lane id="W_in_1" index="1" speed="13.90" length="289.60" shape="0.00,298.40 289.60,298.40"/>
    </edge>

    <tlLogic id="C" type="static" programID="0" offset="0">
        <phase duration="42" state="GGGggrrrrrGGGggrrrrr"/>
        <phase duration="3"  state="yyyyyrrrrryyyyyrrrrr"/>
        <phase duration="42" state="rrrrrGGGggrrrrrGGGgg"/>
        <phase duration="3"  state="rrrrryyyyyrrrrryyyyy"/>
    </tlLogic>

    <junction id="C" type="traffic_light" x="300.00" y="300.00" incLanes="N_in_0 N_in_1 E_in_0 E_in_1 S_in_0 S_in_1 W_in_0 W_in_1" intLanes=":C_0_0 :C_1_0 :C_1_1 :C_20_0 :C_21_0 :C_5_0 :C_6_0 :C_6_1 :C_22_0 :C_23_0 :C_10_0 :C_11_0 :C_11_1 :C_24_0 :C_25_0 :C_15_0 :C_16_0 :C_16_1 :C_26_0 :C_27_0" shape="293.60,310.40 306.40,310.40 306.84,308.18 307.40,307.40 308.18,306.84 309.18,306.51 310.40,306.40 310.40,293.60 308.18,293.16 307.40,292.60 306.84,291.82 306.51,290.82 306.40,289.60 293.60,289.60 293.16,291.82 292.60,292.60 291.82,293.16 290.82,293.49 289.60,293.60 289.60,306.40 291.82,306.84 292.60,307.40 293.16,308.18 293.49,309.18">
        <request index="0"  response="00000000000000000000" foes="00000000000011000000" cont="0"/>
        <request index="1"  response="01000000000000000000" foes="01111110000111000000" cont="0"/>
        <request index="2"  response="01000000000100000000" foes="01111110000111000000" cont="0"/>
        <request index="3"  response="01000001100100000000" foes="01110001101111000000" cont="1"/>
        <request index="4"  response="01000001100000000000" foes="01000001100000000000" cont="1"/>
        <request index="5"  response="00000001100000000000" foes="00000001100000000000" cont="0"/>
        <request index="6"  response="00000011100000001111" foes="11000011100000001111" cont="0"/>
        <request index="7"  response="00000011100000001111" foes="11000011100000001111" cont="0"/>
        <request index="8"  response="00110011100000001110" foes="00110111100000001110" cont="1"/>
        <request index="9"  response="00110000000000001000" foes="00110000000000001000" cont="1"/>
        <request index="10" response="00000000000000000000" foes="00110000000000000000" cont="0"/>
        <request index="11" response="00000000000100000000" foes="01110000000111111000" cont="0"/>
        <request index="12" response="01000000000100000000" foes="01110000000111111000" cont="0"/>
        <request index="13" response="01000000000100000110" foes="11110000000111000110" cont="1"/>
        <request index="14" response="00000000000100000110" foes="00000000000100000110" cont="1"/>
        <request index="15" response="00000000000000000110" foes="00000000000000000110" cont="0"/>
        <request index="16" response="00000011110000001110" foes="00000011111100001110" cont="0"/>
        <request index="17" response="00000011110000001110" foes="00000011111100001110" cont="0"/>
        <request index="18" response="00000011100011001110" foes="00000011100011011110" cont="1"/>
        <request index="19" response="00000010000011000000" foes="00000010000011000000" cont="1"/>
    </junction>
    <junction id="E" type="priority" x="600.00" y="300.00" incLanes="C_E_0 C_E_1" intLanes=":E_0_0" shape="600.00,300.00 600.00,293.60 600.00,300.00">
        <request index="0" response="0" foes="0" cont="0"/>
    </junction>
    <junction id="N" type="priority" x="300.00" y="600.00" incLanes="C_N_0 C_N_1" intLanes=":N_0_0" shape="300.00,600.00 306.40,600.00 300.00,600.00">
        <request index="0" response="0" foes="0" cont="0"/>
    </junction>
    <junction id="S" type="priority" x="300.00" y="0.00" incLanes="C_S_0 C_S_1" intLanes=":S_0_0" shape="300.00,0.00 293.60,0.00 300.00,0.00">
        <request index="0" response="0" foes="0" cont="0"/>
    </junction>
    <junction id="W" type="priority" x="0.00" y="300.00" incLanes="C_W_0 C_W_1" intLanes=":W_0_0" shape="0.00,300.00 0.00,306.40 0.00,300.00">
        <request index="0" response="0" foes="0" cont="0"/>
    </junction>

    <junction id=":C_20_0" type="internal" x="299.11" y="305.44" incLanes=":C_3_0 S_in_0 S_in_1" intLanes=":C_6_0 :C_6_1 :C_8_0 :C_9_0 :C_10_0 :C_11_0 :C_11_1 :C_16_0 :C_16_1 :C_18_0"/>
    <junction id=":C_21_0" type="internal" x="299.20" y="309.20" incLanes=":C_4_0 E_in_0 S_in_0 S_in_1 W_in_1" intLanes=":C_5_0 :C_11_0 :C_11_1 :C_18_0"/>
    <junction id=":C_22_0" type="internal" x="305.44" y="300.89" incLanes=":C_8_0 W_in_0 W_in_1" intLanes=":C_1_0 :C_1_1 :C_3_0 :C_11_0 :C_11_1 :C_13_0 :C_14_0 :C_15_0 :C_16_0 :C_16_1"/>
    <junction id=":C_23_0" type="internal" x="309.20" y="300.80" incLanes=":C_9_0 N_in_1 S_in_0 W_in_0 W_in_1" intLanes=":C_3_0 :C_10_0 :C_16_0 :C_16_1"/>
    <junction id=":C_24_0" type="internal" x="300.89" y="294.56" incLanes=":C_13_0 N_in_0 N_in_1" intLanes=":C_0_0 :C_1_0 :C_1_1 :C_6_0 :C_6_1 :C_8_0 :C_16_0 :C_16_1 :C_18_0 :C_19_0"/>
    <junction id=":C_25_0" type="internal" x="300.80" y="290.80" incLanes=":C_14_0 E_in_1 N_in_0 N_in_1 W_in_0" intLanes=":C_1_0 :C_1_1 :C_8_0 :C_15_0"/>
    <junction id=":C_26_0" type="internal" x="294.56" y="299.11" incLanes=":C_18_0 E_in_0 E_in_1" intLanes=":C_1_0 :C_1_1 :C_3_0 :C_4_0 :C_5_0 :C_6_0 :C_6_1 :C_11_0 :C_11_1 :C_13_0"/>
    <junction id=":C_27_0" type="internal" x="290.80" y="299.20" incLanes=":C_19_0 E_in_0 E_in_1 N_in_0 S_in_1" intLanes=":C_0_0 :C_6_0 :C_6_1 :C_13_0"/>

    <connection from="C_E" to="E_in" fromLane="1" toLane="1" via=":E_0_0" dir="t" state="M"/>
    <connection from="C_N" to="N_in" fromLane="1" toLane="1" via=":N_0_0" dir="t" state="M"/>
    <connection from="C_S" to="S_in" fromLane="1" toLane="1" via=":S_0_0" dir="t" state="M"/>
    <connection from="C_W" to="W_in" fromLane="1" toLane="1" via=":W_0_0" dir="t" state="M"/>
    <connection from="E_in" to="C_N" fromLane="0" toLane="0" via=":C_5_0" tl="C" linkIndex="5" dir="r" state="o"/>
    <connection from="E_in" to="C_W" fromLane="0" toLane="0" via=":C_6_0" tl="C" linkIndex="6" dir="s" state="o"/>
    <connection from="E_in" to="C_W" fromLane="1" toLane="1" via=":C_6_1" tl="C" linkIndex="7" dir="s" state="o"/>
    <connection from="E_in" to="C_S" fromLane="1" toLane="1" via=":C_8_0" tl="C" linkIndex="8" dir="l" state="o"/>
    <connection from="E_in" to="C_E" fromLane="1" toLane="1" via=":C_9_0" tl="C" linkIndex="9" dir="t" state="o"/>
    <connection from="N_in" to="C_W" fromLane="0" toLane="0" via=":C_0_0" tl="C" linkIndex="0" dir="r" state="O"/>
    <connection from="N_in" to="C_S" fromLane="0" toLane="0" via=":C_1_0" tl="C" linkIndex="1" dir="s" state="O"/>
    <connection from="N_in" to="C_S" fromLane="1" toLane="1" via=":C_1_1" tl="C" linkIndex="2" dir="s" state="O"/>
    <connection from="N_in" to="C_E" fromLane="1" toLane="1" via=":C_3_0" tl="C" linkIndex="3" dir="l" state="o"/>
    <connection from="N_in" to="C_N" fromLane="1" toLane="1" via=":C_4_0" tl="C" linkIndex="4" dir="t" state="o"/>
    <connection from="S_in" to="C_E" fromLane="0" toLane="0" via=":C_10_0" tl="C" linkIndex="10" dir="r" state="O"/>
    <connection from="S_in" to="C_N" fromLane="0" toLane="0" via=":C_11_0" tl="C" linkIndex="11" dir="s" state="O"/>
    <connection from="S_in" to="C_N" fromLane="1" toLane="1" via=":C_11_1" tl="C" linkIndex="12" dir="s" state="O"/>
    <connection from="S_in" to="C_W" fromLane="1" toLane="1" via=":C_13_0" tl="C" linkIndex="13" dir="l" state="o"/>
    <connection from="S_in" to="C_S" fromLane="1" toLane="1" via=":C_14_0" tl="C" linkIndex="14" dir="t" state="o"/>
    <connection from="W_in" to="C_S" fromLane="0" toLane="0" via=":C_15_0" tl="C" linkIndex="15" dir="r" state="o"/>
    <connection from="W_in" to="C_E" fromLane="0" toLane="0" via=":C_16_0" tl="C" linkIndex="16" dir="s" state="o"/>
    <connection from="W_in" to="C_E" fromLane="1" toLane="1" via=":C_16_1" tl="C" linkIndex="17" dir="s" state="o"/>
    <connection from="W_in" to="C_N" fromLane="1" toLane="1" via=":C_18_0" tl="C" linkIndex="18" dir="l" state="o"/>
    <connection from="W_in" to="C_W" fromLane="1" toLane="1" via=":C_19_0" tl="C" linkIndex="19" dir="t" state="o"/>

    <connection from=":C_0" to="C_W" fromLane="0" toLane="0" dir="r" state="M"/>
    <connection from=":C_1" to="C_S" fromLane="0" toLane="0" dir="s" state="M"/>
    <connection from=":C_1" to="C_S" fromLane="1" toLane="1" dir="s" state="M"/>
    <connection from=":C_3" to="C_E" fromLane="0" toLane="1" via=":C_20_0" dir="l" state="m"/>
    <connection from=":C_20" to="C_E" fromLane="0" toLane="1" dir="l" state="M"/>
    <connection from=":C_4" to="C_N" fromLane="0" toLane="1" via=":C_21_0" dir="t" state="m"/>
    <connection from=":C_21" to="C_N" fromLane="0" toLane="1" dir="t" state="M"/>
    <connection from=":C_5" to="C_N" fromLane="0" toLane="0" dir="r" state="M"/>
    <connection from=":C_6" to="C_W" fromLane="0" toLane="0" dir="s" state="M"/>
    <connection from=":C_6" to="C_W" fromLane="1" toLane="1" dir="s" state="M"/>
    <connection from=":C_8" to="C_S" fromLane="0" toLane="1" via=":C_22_0" dir="l" state="m"/>
    <connection from=":C_22" to="C_S" fromLane="0" toLane="1" dir="l" state="M"/>
    <connection from=":C_9" to="C_E" fromLane="0" toLane="1" via=":C_23_0" dir="t" state="m"/>
    <connection from=":C_23" to="C_E" fromLane="0" toLane="1" dir="t" state="M"/>
    <connection from=":C_10" to="C_E" fromLane="0" toLane="0" dir="r" state="M"/>
    <connection from=":C_11" to="C_N" fromLane="0" toLane="0" dir="s" state="M"/>
    <connection from=":C_11" to="C_N" fromLane="1" toLane="1" dir="s" state="M"/>
    <connection from=":C_13" to="C_W" fromLane="0" toLane="1" via=":C_24_0" dir="l" state="m"/>
    <connection from=":C_24" to="C_W" fromLane="0" toLane="1" dir="l" state="M"/>
    <connection from=":C_14" to="C_S" fromLane="0" toLane="1" via=":C_25_0" dir="t" state="m"/>
    <connection from=":C_25" to="C_S" fromLane="0" toLane="1" dir="t" state="M"/>
    <connection from=":C_15" to="C_S" fromLane="0" toLane="0" dir="r" state="M"/>
    <connection from=":C_16" to="C_E" fromLane="0" toLane="0" dir="s" state="M"/>
    <connection from=":C_16" to="C_E" fromLane="1" toLane="1" dir="s" state="M"/>
    <connection from=":C_18" to="C_N" fromLane="0" toLane="1" via=":C_26_0" dir="l" state="m"/>
    <connection from=":C_26" to="C_N" fromLane="0" toLane="1" dir="l" state="M"/>
    <connection from=":C_19" to="C_W" fromLane="0" toLane="1" via=":C_27_0" dir="t" state="m"/>
    <connection from=":C_27" to="C_W" fromLane="0" toLane="1" dir="t" state="M"/>
    <connection from=":E_0" to="E_in" fromLane="0" toLane="1" dir="t" state="M"/>
    <connection from=":N_0" to="N_in" fromLane="0" toLane="1" dir="t" state="M"/>
    <connection from=":S_0" to="S_in" fromLane="0" toLane="1" dir="t" state="M"/>
    <connection from=":W_0" to="W_in" fromLane="0" toLane="1" dir="t" state="M"/>

</net>
